/*--------------------------------*- C++ -*----------------------------------*\
| =========                 |                                                 |
| \\      /  F ield         | OpenFOAM Extend Project: Open Source CFD        |
|  \\    /   O peration     | Version:  1.6-ext                               |
|   \\  /    A nd           | Web:      www.extend-project.de                 |
|    \\/     M anipulation  |                                                 |
\*---------------------------------------------------------------------------*/
FoamFile
{
    version     2.0;
    format      ascii;
    class       dictionary;
    location    "system";
    object      controlDict;
}
// * * * * * * * * * * * * * * * * * * * * * * * * * * * * * * * * * * * * * //

application     interIsoFoam;

startFrom       startTime;

startTime       0;

stopAt          endTime;

endTime         0.008;

deltaT          5e-7;

writeControl    runTime;

writeInterval   1e-4;

purgeWrite      0;

writeFormat     binary;

writePrecision  6;

writeCompression off;

timeFormat      general;

timePrecision   6;

runTimeModifiable yes;

adjustTimeStep  no;

maxCo 0.5; 
maxAlphaCo 0.5;

maxDeltaT       0.01;
maxCapillaryNum 0.5;
/*
OptimisationSwitches
{
    //- Parallel IO file handler
    //  uncollated (default), collated or masterUncollated
    fileHandler collated;
}*/

#include "FO_plicInterface"
#include "FO_visRDF"
// * * * * * * * * * * * * * * * * * * * * * * * * * * * * * * * * * * * * * //
