/*--------------------------------*- C++ -*----------------------------------*\
| =========                 |                                                 |
| \\      /  F ield         | OpenFOAM: The Open Source CFD Toolbox           |
|  \\    /   O peration     | Version:  2.1.1                                 |
|   \\  /    A nd           | Web:      www.OpenFOAM.org                      |
|    \\/     M anipulation  |                                                 |
\*---------------------------------------------------------------------------*/
FoamFile
{
    version     2.0;
    format      ascii;
    class       dictionary;
    location    "constant";
    object      transportProperties;
}
// * * * * * * * * * * * * * * * * * * * * * * * * * * * * * * * * * * * * * //

// test water/air
phases ( phase1 phase2);

phase1
{
    transportModel  Newtonian;
    nu              nu [ 0 2 -1 0 0 0 0 ] 0.0;
    rho             rho [ 1 -3 0 0 0 0 0 ] 998.2;
}

phase2
{
    transportModel  Newtonian;
    nu              nu [ 0 2 -1 0 0 0 0 ] 0.0;
    rho             rho [ 1 -3 0 0 0 0 0 ] 1.19;

}

sigma           sigma [ 1 0 -2 0 0 0 0 ] 72.74e-3;

surfaceForces
{
  sigma 72.74e-3;
  surfaceTensionForceModel constantCurvature; //RDF RDFleastSquare fitParaboloid gradAlpha heightFunction
  curv 2000;
  accelerationForceModel gravity;
  deltaFunctionModel alphaCSF;
}


// ************************************************************************* //
