/*--------------------------------*- C++ -*----------------------------------*\
| =========                 |                                                 |
| \\      /  F ield         | OpenFOAM: The Open Source CFD Toolbox           |
|  \\    /   O peration     | Version:  v2212                                 |
|   \\  /    A nd           | Website:  www.openfoam.com                      |
|    \\/     M anipulation  |                                                 |
\*---------------------------------------------------------------------------*/
FoamFile
{
    version     2.0;
    format      ascii;
    class       dictionary;
    location    "system";
    object      fvSolution;
}
// * * * * * * * * * * * * * * * * * * * * * * * * * * * * * * * * * * * * * //

solvers
{
    "alpha.water.*"
    {
                // Entries taken from "TwoPhaseFlow/testsuite/surfaceTension/sinWave/system/fvSolution"
        advectionScheme isoAdvection;

	    reconstructionScheme plicRDF;

		vof2IsoTol      1e-8;
		surfCellTol     1e-8;
		writeVTK        false;


        isoFaceTol      1e-8;
        surfCellTol     1e-8;
        nAlphaBounds    3;
        snapTol         1e-12;
        clip            true;

        nAlphaSubCycles 2;
        nAlphaCorr      1;
        cAlpha          1;
        writeIsoFaces   false;
    }

    "pcorr.*"
    {
        solver          PCG;
        preconditioner
        {
            preconditioner  GAMG;
            tolerance       1e-5;
            relTol          0;
            smoother        GaussSeidel;
        }
        tolerance       1e-5;
        relTol          0;
        maxIter         50;
    }

    p_rgh
    {
        solver           GAMG;
        tolerance        5e-9;
        relTol           0.01;
        smoother         GaussSeidel;
        maxIter          50;
    };

    p_rghFinal
    {
        $p_rgh;
        tolerance       5e-9;
        relTol          0;
    }

    psi 
    {
        solver           GAMG;
        tolerance        5e-9;
        relTol           0.01;
        smoother         GaussSeidel;
        maxIter          50;
    };

    psiFinal
    {
        $p_rgh;
        tolerance       5e-9;
        relTol          0;
    }

    "(U|k|omega|s).*"
    {
        solver          smoothSolver;
        smoother        symGaussSeidel;
        nSweeps         1;
        tolerance       1e-6;
        relTol          0.1;
    };
}

PIMPLE
{
    momentumPredictor no;
    nOuterCorrectors  1;
    nCorrectors       1;
    nNonOrthogonalCorrectors 0;
}

relaxationFactors
{
    equations
    {
        ".*" 1;
    }
}


// ************************************************************************* //
