/*--------------------------------*- C++ -*----------------------------------*\
| =========                 |                                                 |
| \\      /  F ield         | OpenFOAM: The Open Source CFD Toolbox           |
|  \\    /   O peration     | Version:  com                                   |
|   \\  /    A nd           | Website:  www.openfoam.com                      |
|    \\/     M anipulation  |                                                 |
\*---------------------------------------------------------------------------*/
FoamFile
{
    version     2.0;
    format      ascii;
    class       dictionary;
    location    "system";
    object      functionObject2;
}
// * * * * * * * * * * * * * * * * * * * * * * * * * * * * * * * * * * * * * //

functions
{
    extremMagU
    {
        libs            ("libutilityFunctionObjects.so");
        type            coded;
        name            extremMagU;
        writeControl    timeStep;
        writeInterval   1;

        codeWrite
        #{

            const volVectorField& U(mesh().lookupObject<volVectorField>("U"));

            if (Pstream::master())
            {
             	fileName outputFile = ("./ExtremMagU.dat");
                autoPtr<OFstream> outputFilePtr;    

                if (!exists(outputFile))
                {
                    OFstream is(outputFile);
                    outputFilePtr.reset(new OFstream(outputFile));
                    outputFilePtr() << "time" << tab << "minMagU" << tab << "maxMagU" << endl;
                }

                 outputFilePtr.reset(new OFstream(outputFile,IOstreamOption(),IOstreamOption::APPEND));
                 outputFilePtr() << mesh().time().timeName() << tab << gMin(mag(U).ref()) << tab << gMax(mag(U).ref()) << endl;
             }
        #};
    }
}
